<<<<<<< HEAD
This is a test file on github local. edited by chamith
=======
This is a test file on github server. edited by chamith again
>>>>>>> 9647352dbee8e8c4fcdb48b2f8a3e8c3db5bda98
we can edit this.
this is 3rd line added by chamith.
add a line again
we are tring to merge code using git.
//this is a code
new line.

for(int i=0;i<100;i++)
{
     System.out.println("chamith weerasinghe");
     System.out.println("isuru");
<<<<<<< HEAD
     System.out.println("nilanga");
=======
     System.out.println("shawn");
>>>>>>> 9647352dbee8e8c4fcdb48b2f8a3e8c3db5bda98
}
new line from local machine.
