<<<<<<< HEAD
This is a test file on github and local machine. edited by Nadeeshan
=======
This is a test file on github and local. edited by me again
>>>>>>> 2bff4a6c359bee61a12b7d9e8a90dca41ba6cfc2
we can edit this.
this is 3rd line added by chamith.
we are tring to merge code using git.
//this is a code
new line.

for(int i=0;i<100;i++)
{
     System.out.println("chamith weerasinghe");
     System.out.println("isuru");
<<<<<<< HEAD
     System.out.println("hasala");
=======
     System.out.println("Shawn");
>>>>>>> 2bff4a6c359bee61a12b7d9e8a90dca41ba6cfc2
}
new line from local - server
