<<<<<<< HEAD
This is a test file on github and local.
=======
This is a test file on github server edit by chamith.
>>>>>>> e441f0bf3a7172b9b21f273fd11cd6f6ae4d53ac
we can edit this.
this is 3rd line added by chamith.
we are tring to merge code using git.
//this is a code
new line.

for(int i=0;i<100;i++)
{
     System.out.println("chamith weerasinghe");
<<<<<<< HEAD
     System.out.println("shawn");
=======
     System.out.println("isuru");
>>>>>>> e441f0bf3a7172b9b21f273fd11cd6f6ae4d53ac
}
new line from local - server
