This is a test file on github server. edited by chamith again
we can edit this.
this is 3rd line added by chamith.
we are tring to merge code using git.
//this is a code
new line.

for(int i=0;i<100;i++)
{
     System.out.println("chamith weerasinghe");
     System.out.println("isuru");
     System.out.println("shawn");
}
new line from local - server
