This is a test file on github local. edited by chamith
we can edit this.
this is 3rd line added by chamith.
add a line again
we are tring to merge code using git.
//this is a code
new line.

for(int i=0;i<100;i++)
{
     System.out.println("chamith weerasinghe edited today");
     System.out.println("edit on local but now from server");
     System.out.println("edit on server");
}
new line from local machine.
