<<<<<<< HEAD
This is a test file on github and local. edited locally
=======
This is a test file on github and local. edited by Nadeeshan
>>>>>>> 1a4a2974cfd220d5e75d58be2183cbde34952cf5
we can edit this.
this is 3rd line added by chamith.
we are tring to merge code using git.
//this is a code
new line.

for(int i=0;i<100;i++)
{
     System.out.println("chamith weerasinghe");
     System.out.println("isuru");
     System.out.println("Nadeeshan");
}
new line from local - server

new line
