This is a test file on github local. edited by chamith
we can edit this.
this is 3rd line added by chamith.
add a line again
we are tring to merge code using git.
//this is a code
new line.

for(int i=0;i<100;i++)
{
     System.out.println("chamith weerasinghe");
<<<<<<< HEAD
     System.out.println("edit on local");
     System.out.println("hasala");
=======
     System.out.println("isuru");
     System.out.println("edit on server");
>>>>>>> 2d20f516527e2c04affb32b9bc542d6e2959aea0
}
new line from local machine.
